.model NMOS nmos (level=1)
.model PMOS pmos (level=1)
